Circuit: * C:\Users\mopsiok\Desktop\spice\preamp.asc

C1: both pins shorted together -- ignoring.
WARNING: Less than two connections to node OUT.  This node is used by B1.
WARNING: Less than two connections to node VDAC.  This node is used by B2.
Early termination of direct N-R iteration.
Direct Newton iteration failed to find .op point.  (Use ".option noopiter" to skip.)
Starting Gmin stepping
Gmin = 10
Gmin = 1.07374
Gmin = 0.115292
Gmin = 0.0123794
Gmin = 0.00132923
Gmin = 0.000142725
Gmin = 1.5325e-005
Gmin = 1.6455e-006
Gmin = 1.76685e-007
Gmin = 1.89714e-008
Gmin = 2.03704e-009
Gmin = 2.18725e-010
Gmin = 2.34854e-011
Gmin = 2.52173e-012
Gmin = 2.70769e-013
Gmin = 0
Gmin stepping succeeded in finding the operating point.

.step rin=402
.step rin=560
.step rin=1000

Date: Mon Nov 04 01:01:30 2019
Total elapsed time: 16.175 seconds.

tnom = 27
temp = 27
method = modified trap
totiter = 203339
traniter = 202971
tranpoints = 99277
accept = 78431
rejected = 20846
matrix size = 43
fillins = 82
solver = Normal
Thread vector: 24.0/11.2[4] 5.8/2.5[4] 3.6/2.1[4] 0.2/0.5[1]  2592/500
Matrix Compiler1: 7,50 KB object code size  1.6/0.7/[0.5]
Matrix Compiler2: 6,00 KB object code size  1.0/1.3/[0.5]


